<?xml version="1.0" encoding="UTF-8"?>
<routes>
  <vType accel="2.0" decel="2.0" id="BasicControl" length="4.0" minGap="0.01" maxSpeed="10.0" />
  <vType accel="2.0" decel="2.0" id="NoControl" length="4.0" minGap="0.01" maxSpeed="10.0" />
  <vType accel="3.0" decel="6.0" id="npc" length="4.0" minGap="0.01" maxSpeed="5.0" sigma="1" />
  <vType accel="3.0" decel="6.0" id="Braker" length="4.0" minGap="0.01" maxSpeed="5.0" sigma="0" />

  <route id="route01" edges="1to2 out"/>

  <vehicle depart="1" id="veh0" route="route01" type="Braker" />
  <vehicle depart="6" id="veh1" route="route01" type="BasicControl" color="1,0,1" />
</routes>
